
     RDKit          3D

 34 37  0  0  0  0  0  0  0  0999 V2000
  -28.7580   -4.1979   -8.8572 O   0  0  0  0  0  0  0  0  0  0  0  0
  -29.7550   -4.9522   -8.8403 C   0  0  0  0  0  0  0  0  0  0  0  0
  -29.5324   -6.3438   -8.7574 N   0  0  0  0  0  0  0  0  0  0  0  0
  -27.4684   -6.6298   -8.8476 Dy  0  0  0  0  0  1  0  0  0  0  0  0
  -31.0903   -4.3756   -8.9058 C   0  0  0  0  0  0  0  0  0  0  0  0
  -31.2460   -3.0065   -8.9390 C   0  0  0  0  0  0  0  0  0  0  0  0
  -32.4588   -2.3553   -9.0011 C   0  0  0  0  0  0  0  0  0  0  0  0
  -32.5918   -0.9040   -9.0350 C   0  0  0  0  0  0  0  0  0  0  0  0
  -33.7103   -0.2201   -9.4311 C   0  0  0  0  0  0  0  0  0  0  0  0
  -33.7526    1.1387   -9.4333 N   0  0  0  0  0  0  0  0  0  0  0  0
  -32.6768    1.8421   -9.0392 C   0  0  0  0  0  0  0  0  0  0  0  0
  -31.5065    1.2370   -8.6237 C   0  0  0  0  0  0  0  0  0  0  0  0
  -30.2899    1.9530   -8.1788 C   0  0  0  0  0  0  0  0  0  0  0  0
  -30.5657    3.3139   -8.1971 F   0  0  0  0  0  0  0  0  0  0  0  0
  -29.2456    1.7260   -9.0718 F   0  0  0  0  0  0  0  0  0  0  0  0
  -29.9481    1.4903   -6.9307 F   0  0  0  0  0  0  0  0  0  0  0  0
  -31.5140   -0.1406   -8.6396 C   0  0  0  0  0  0  0  0  0  0  0  0
  -33.5332   -3.1615   -9.0289 N   0  0  0  0  0  0  0  0  0  0  0  0
  -33.4484   -4.5000   -8.9992 C   0  0  0  0  0  0  0  0  0  0  0  0
  -34.6411   -5.2755   -9.0324 N   0  0  0  0  0  0  0  0  0  0  0  0
  -34.6782   -6.6871   -8.6496 C   0  0  0  0  0  0  0  0  0  0  0  0
  -36.1212   -7.0618   -8.5622 C   0  0  0  0  0  0  0  0  0  0  0  0
  -36.7714   -6.0780   -9.5236 C   0  0  1  0  0  0  0  0  0  0  0  0
  -38.1238   -5.8789   -9.0380 N   0  0  0  0  0  0  0  0  0  0  0  0
  -39.0760   -5.1938   -9.8516 C   0  0  0  0  0  0  0  0  0  0  0  0
  -38.8609   -4.6229  -10.9657 O   0  0  0  0  0  0  0  0  0  0  0  0
  -40.5271   -5.0467   -9.4877 C   0  0  0  0  0  0  0  0  0  0  0  0
  -41.2413   -4.1776  -10.4313 C   0  0  0  0  0  0  0  0  0  0  0  0
  -41.9777   -3.0199   -9.8645 C   0  0  0  0  0  0  0  0  0  0  0  0
  -41.5562   -2.6731   -8.4529 C   0  0  0  0  0  0  0  0  0  0  0  0
  -41.6231   -4.0130   -7.7072 C   0  0  0  0  0  0  0  0  0  0  0  0
  -40.5742   -4.7656   -8.1592 O   0  0  0  0  0  0  0  0  0  0  0  0
  -35.9578   -4.8216   -9.4315 C   0  0  0  0  0  0  0  0  0  0  0  0
  -32.2282   -5.1402   -8.9370 C   0  0  0  0  0  0  0  0  0  0  0  0
  1  2  2  0
  2  3  1  0
  3  4  1  0
  2  5  1  0
  5  6  2  0
  6  7  1  0
  7  8  1  0
  8  9  2  0
  9 10  1  0
 10 11  2  0
 11 12  1  0
 12 13  1  0
 13 14  1  0
 13 15  1  0
 13 16  1  0
 12 17  2  0
  7 18  2  0
 18 19  1  0
 19 20  1  0
 20 21  1  0
 21 22  1  0
 22 23  1  0
 23 24  1  1
 24 25  1  0
 25 26  2  0
 25 27  1  0
 27 28  1  0
 28 29  1  0
 29 30  1  0
 30 31  1  0
 31 32  1  0
 23 33  1  0
 19 34  2  0
 34  5  1  0
 17  8  1  0
 33 20  1  0
 32 27  1  0
M  END
$$$$
