
     RDKit          3D

 41 46  0  0  0  0  0  0  0  0999 V2000
  -18.4786  -40.0632   42.7882 C   0  0  0  0  0  0  0  0  0  0  0  0
  -19.8268  -39.6197   43.2291 C   0  0  0  0  0  0  0  0  0  0  0  0
  -20.3166  -39.4052   44.4361 O   0  0  0  0  0  0  0  0  0  0  0  0
  -21.5457  -39.0223   44.3993 N   0  0  0  0  0  0  0  0  0  0  0  0
  -21.9871  -38.9496   43.1324 C   0  0  0  0  0  0  0  0  0  0  0  0
  -23.3437  -38.5428   42.8093 C   0  0  0  0  0  0  0  0  0  0  0  0
  -23.6930  -37.5253   41.9460 C   0  0  0  0  0  0  0  0  0  0  0  0
  -25.0133  -37.2028   41.6936 C   0  0  0  0  0  0  0  0  0  0  0  0
  -25.9823  -37.9369   42.3384 C   0  0  0  0  0  0  0  0  0  0  0  0
  -25.6879  -38.9610   43.2084 C   0  0  0  0  0  0  0  0  0  0  0  0
  -24.3554  -39.2709   43.4492 C   0  0  0  0  0  0  0  0  0  0  0  0
  -20.8894  -39.3298   42.4014 C   0  0  0  0  0  0  0  0  0  0  0  0
  -20.8367  -39.4267   40.9684 C   0  0  0  0  0  0  0  0  0  0  0  0
  -19.8293  -38.7321   40.5814 O   0  0  0  0  0  0  0  0  0  0  0  0
  -21.2133  -39.8234   39.6718 N   0  0  0  0  0  0  0  0  0  0  0  0
  -22.4733  -40.4893   39.7576 C   0  0  0  0  0  0  0  0  0  0  0  0
  -22.9982  -41.0620   38.4906 C   0  0  0  0  0  0  0  0  0  0  0  0
  -22.5347  -40.4487   37.2235 C   0  0  0  0  0  0  0  0  0  0  0  0
  -21.5563  -39.3083   37.3649 C   0  0  1  0  0  0  0  0  0  0  0  0
  -22.1851  -37.9839   37.4850 C   0  0  0  0  0  0  0  0  0  0  0  0
  -21.6150  -36.7572   37.2203 C   0  0  0  0  0  0  0  0  0  0  0  0
  -22.2618  -35.5508   37.3724 C   0  0  0  0  0  0  0  0  0  0  0  0
  -23.5664  -35.5280   37.8166 C   0  0  0  0  0  0  0  0  0  0  0  0
  -24.1715  -36.7379   38.0924 C   0  0  0  0  0  0  0  0  0  0  0  0
  -25.5510  -36.6866   38.5654 C   0  0  0  0  0  0  0  0  0  0  0  0
  -26.3116  -35.5505   38.7462 C   0  0  0  0  0  0  0  0  0  0  0  0
  -27.5889  -35.6055   39.1977 C   0  0  0  0  0  0  0  0  0  0  0  0
  -28.2173  -36.7952   39.5070 C   0  0  0  0  0  0  0  0  0  0  0  0
  -29.6075  -36.9649   40.0011 C   0  0  0  0  0  0  0  0  0  0  0  0
  -29.6665  -38.0212   41.0657 C   0  0  0  0  0  0  0  0  0  0  0  0
  -30.3972  -37.3977   42.2384 C   0  0  0  0  0  0  0  0  0  0  0  0
  -30.1576  -35.9011   42.0492 C   0  0  0  0  0  0  0  0  0  0  0  0
  -30.2040  -35.7407   40.5740 C   0  0  0  0  0  0  0  0  0  0  0  0
  -27.4163  -37.9233   39.3113 C   0  0  0  0  0  0  0  0  0  0  0  0
  -26.1111  -37.9271   38.8547 C   0  0  0  0  0  0  0  0  0  0  0  0
  -23.4753  -37.9077   37.9212 C   0  0  0  0  0  0  0  0  0  0  0  0
  -20.5370  -39.6407   38.3981 C   0  0  2  0  0  0  0  0  0  0  0  0
  -19.9205  -40.9446   37.9475 C   0  0  0  0  0  0  0  0  0  0  0  0
  -20.7478  -41.8934   38.1818 O   0  0  0  0  0  0  0  0  0  0  0  0
  -18.6711  -41.2721   37.3530 N   0  0  0  0  0  0  0  0  0  0  0  0
  -18.1783  -40.1698   35.7363 Dy  0  0  0  0  0  1  0  0  0  0  0  0
  1  2  1  0
  2  3  1  0
  3  4  1  0
  4  5  2  0
  5  6  1  0
  6  7  2  0
  7  8  1  0
  8  9  2  0
  9 10  1  0
 10 11  2  0
  5 12  1  0
 12 13  1  0
 13 14  2  0
 13 15  1  0
 15 16  1  0
 16 17  1  0
 17 18  1  0
 18 19  1  0
 19 20  1  1
 20 21  2  0
 21 22  1  0
 22 23  2  0
 23 24  1  0
 24 25  1  0
 25 26  2  0
 26 27  1  0
 27 28  2  0
 28 29  1  0
 29 30  1  0
 30 31  1  0
 31 32  1  0
 32 33  1  0
 28 34  1  0
 34 35  2  0
 24 36  2  0
 19 37  1  0
 37 38  1  6
 38 39  2  0
 38 40  1  0
 40 41  1  0
 12  2  2  0
 37 15  1  0
 11  6  1  0
 36 20  1  0
 35 25  1  0
 33 29  1  0
M  END
$$$$
